/*--------------------------------*- C++ -*----------------------------------*\
  =========                 |
  \\      /  F ield         | OpenFOAM: The Open Source CFD Toolbox
   \\    /   O peration     | Website:  https://openfoam.org
    \\  /    A nd           | Version:  9
     \\/     M anipulation  |
\*---------------------------------------------------------------------------*/
FoamFile
{
    format      ascii;
    class       dictionary;
    object      blockMeshDict;
}
// * * * * * * * * * * * * * * * * * * * * * * * * * * * * * * * * * * * * * //

convertToMeters 1;

L 0.3; // length x-dir
H 0.1; // Height y-dir
D 0.01; // Depth z-dir
Nx 60; // Number of cells in x-dir
Ny 20; // Number of cells in y-dir
Nz 1; // Number of cells in z-dir

vertices
(
    (0 0 0) //0
    ($L 0 0) //1
    ($L $H 0) //2
    (0 $H 0) //3
    (0 0 $D) //4
    ($L 0 $D) //5
    ($L $H $D) //6
    (0 $H $D) //7
);

blocks
(
    hex (0 1 2 3 4 5 6 7) ($Nx $Ny $Nz) simpleGrading (1 1 1)
);

edges
(
);

boundary
(
    inlet
    {
        type patch;
        faces
        (
            (0 3 7 4)
        );
    }

    outlet
    {
        type patch;
        faces
        (
            (1 2 6 5)
        );
    }

    fixedWalls
    {
        type wall;
        faces
        (
            (1 0 4 5)
            (2 3 7 6)
        );
    }
    frontAndBack
    {
        type empty;
        faces
        (
            (0 3 2 1)
            (4 5 6 7)
        );
    }
);

mergePatchPairs
(
);

// ************************************************************************* //
